Version 4
SHEET 1 880 680
WIRE 160 112 144 112
WIRE 80 208 80 112
WIRE 160 208 160 112
WIRE -16 320 -16 272
WIRE 80 320 80 208
WIRE 80 320 64 320
WIRE 96 320 80 320
WIRE 160 336 160 208
WIRE 320 336 160 336
WIRE 96 352 80 352
WIRE -80 384 -80 352
WIRE 80 384 80 352
WIRE 80 384 -80 384
WIRE -80 416 -80 384
WIRE -80 528 -80 496
FLAG -80 528 0
FLAG -80 272 3.3v
FLAG 128 368 0
FLAG 128 304 3.3v
FLAG 320 336 out
FLAG -16 272 in
FLAG -512 304 0
FLAG -512 224 3.3v
FLAG -352 304 0
FLAG -352 224 in
FLAG -608 304 0
FLAG -608 224 2.2v
SYMBOL res -96 256 R0
SYMATTR InstName R1
SYMATTR Value 220k
SYMBOL res -96 400 R0
SYMATTR InstName R2
SYMATTR Value 220k
SYMBOL res 80 304 R90
WINDOW 0 0 56 VBottom 2
WINDOW 3 32 56 VTop 2
SYMATTR InstName R3
SYMATTR Value 20k
SYMBOL res 176 192 R90
WINDOW 0 0 56 VBottom 2
WINDOW 3 32 56 VTop 2
SYMATTR InstName R4
SYMATTR Value 20k
SYMBOL cap 144 96 R90
WINDOW 0 0 32 VBottom 2
WINDOW 3 32 32 VTop 2
SYMATTR InstName C1
SYMATTR Value 2n
SYMBOL voltage -512 208 R0
WINDOW 123 0 0 Left 2
WINDOW 39 0 0 Left 2
SYMATTR InstName V1
SYMATTR Value 3.3
SYMBOL voltage -352 208 R0
WINDOW 123 24 124 Left 2
WINDOW 39 0 0 Left 2
SYMATTR InstName V2
SYMATTR Value SINE(1.6 1.65 100)
SYMATTR Value2 AC 5
SYMBOL Opamps\\UniversalOpamp2 128 336 R0
SYMATTR InstName U1
SYMBOL voltage -608 208 R0
WINDOW 123 0 0 Left 2
WINDOW 39 0 0 Left 2
SYMATTR InstName V3
SYMATTR Value 1.1v
TEXT -546 552 Left 2 !.ac dec 10 0.5 10000
